data/metadata/IEEE_39_Bus_Power_System.raw
0,100
IEEE 39 Bus Loadflow
test system
   1,  'BUS1'   , 345.0000,  1,  0,  0,  1,  1,  1.0474,      -8.44 
   2,  'BUS10'  , 345.0000,  1,  0,  0,  1,  1,  1.0172,      -5.43 
   3,  'BUS11'  , 345.0000,  1,  0,  0,  1,  1,  1.0127,      -6.28 
   4,  'BUS12'  , 345.0000,  1,  0,  0,  1,  1,  1.0002,      -6.24 
   5,  'BUS13'  , 345.0000,  1,  0,  0,  1,  1,  1.0143,       -6.1 
   6,  'BUS14'  , 345.0000,  1,  0,  0,  1,  1,  1.0117,      -7.65 
   7,  'BUS15'  , 345.0000,  1,  0,  0,  1,  1,  1.0154,      -7.73 
   8,  'BUS16'  , 345.0000,  1,  0,  0,  1,  1,  1.0318,      -6.19 
   9,  'BUS17'  , 345.0000,  1,  0,  0,  1,  1,  1.0336,       -7.3 
  10,  'BUS18'  , 345.0000,  1,  0,  0,  1,  1,  1.0309,      -8.22 
  11,  'BUS19'  , 345.0000,  1,  0,  0,  1,  1,  1.0499,      -1.02 
  12,  'BUS2'   , 345.0000,  1,  0,  0,  1,  1,  1.0487,      -5.75 
  13,  'BUS20'  , 110.0000,  1,  0,  0,  1,  1,  0.9912,      -2.01 
  14,  'BUS21'  , 345.0000,  1,  0,  0,  1,  1,  1.0318,      -3.78 
  15,  'BUS22'  , 345.0000,  1,  0,  0,  1,  1,  1.0498,       0.67 
  16,  'BUS23'  , 345.0000,  1,  0,  0,  1,  1,  1.0448,       0.47 
  17,  'BUS24'  , 345.0000,  1,  0,  0,  1,  1,  1.0373,      -6.07 
  18,  'BUS25'  , 345.0000,  1,  0,  0,  1,  1,  1.0576,      -4.36 
  19,  'BUS26'  , 345.0000,  1,  0,  0,  1,  1,  1.0521,      -5.52 
  20,  'BUS27'  , 345.0000,  1,  0,  0,  1,  1,  1.0377,      -7.49 
  21,  'BUS28'  , 345.0000,  1,  0,  0,  1,  1,  1.0501,      -2.01 
  22,  'BUS29'  , 345.0000,  1,  0,  0,  1,  1,  1.0499,       0.75 
  23,  'BUS3'   , 345.0000,  1,  0,  0,  1,  1,  1.0302,       -8.6 
  24,  'BUS30x1',  13.8000,  2,  0,  0,  1,  1,  1.0475,   -33.3322 
  25,  'BUS31x1',  13.8000,  3,  0,  0,  1,  1,   0.982,        -30 
  26,  'BUS32x1',  13.8000,  2,  0,  0,  1,  1,  0.9831,   -27.4295 
  27,  'BUS33x1',  13.8000,  2,  0,  0,  1,  1,  0.9972,   -25.8034 
  28,  'BUS34x1',  13.8000,  2,  0,  0,  1,  1,  1.0123,   -26.8231 
  29,  'BUS35x1',  13.8000,  2,  0,  0,  1,  1,  1.0493,    -24.368 
  30,  'BUS36x1',  13.8000,  2,  0,  0,  1,  1,  1.0635,   -21.6752 
  31,  'BUS37x1',  13.8000,  2,  0,  0,  1,  1,  1.0278,    -27.577 
  32,  'BUS38x1',  13.8000,  2,  0,  0,  1,  1,  1.0265,   -22.1904 
  33,  'BUS39'  , 345.0000,  2,  0,  0,  1,  1,    1.03,     -10.05 
  34,  'BUS4'   , 345.0000,  1,  0,  0,  1,  1,  1.0039,       -9.6 
  35,  'BUS5'   , 345.0000,  1,  0,  0,  1,  1,  1.0053,      -8.61 
  36,  'BUS6'   , 345.0000,  1,  0,  0,  1,  1,  1.0077,      -7.95 
  37,  'BUS7'   , 345.0000,  1,  0,  0,  1,  1,   0.997,     -10.12 
  38,  'BUS8'   , 345.0000,  1,  0,  0,  1,  1,   0.996,     -10.61 
  39,  'BUS9'   , 345.0000,  1,  0,  0,  1,  1,  1.0282,     -10.32 
0 /end bus section starting load section
   4,  "1",  1,  1,  1,    7.5,     88,  0.0,  0.0,             0.0,              0.0,  1 /  FDNE DYLOAD P=7.5 Q=88 Vbus=345 type=1 DYLOAD=0 Vmin=0.8 Pmin=3.75 Pmax=15 Qmin=44 Qmax=176 name=DL12                 
   7,  "1",  1,  1,  1,    320,    153,  0.0,  0.0,             0.0,              0.0,  1 /  FDNE DYLOAD P=320 Q=153 Vbus=345 type=1 DYLOAD=0 Vmin=0.8 Pmin=160 Pmax=640 Qmin=76.5 Qmax=306 name=DL15              
   8,  "1",  1,  1,  1,    329,   32.3,  0.0,  0.0,             0.0,              0.0,  1 /  FDNE DYLOAD P=329 Q=32.3 Vbus=345 type=1 DYLOAD=0 Vmin=0.8 Pmin=164.5 Pmax=658 Qmin=16.15 Qmax=64.6 name=DL16         
  10,  "1",  1,  1,  1,    158,     30,  0.0,  0.0,             0.0,              0.0,  1 /  FDNE DYLOAD P=158 Q=30 Vbus=345 type=1 DYLOAD=0 Vmin=0.8 Pmin=79 Pmax=316 Qmin=15 Qmax=60 name=DL18                   
  13,  "1",  1,  1,  1,    628,    103,  0.0,  0.0,             0.0,              0.0,  1 /  FDNE DYLOAD P=628 Q=103 Vbus=110 type=1 DYLOAD=0 Vmin=0.8 Pmin=314 Pmax=1256 Qmin=51.5 Qmax=206 name=DL20             
  14,  "1",  1,  1,  1,    274,    115,  0.0,  0.0,             0.0,              0.0,  1 /  FDNE DYLOAD P=274 Q=115 Vbus=345 type=1 DYLOAD=0 Vmin=0.8 Pmin=137 Pmax=548 Qmin=57.5 Qmax=230 name=DL21              
  16,  "1",  1,  1,  1,  247.5,   84.6,  0.0,  0.0,             0.0,              0.0,  1 /  FDNE DYLOAD P=247.5 Q=84.6 Vbus=345 type=1 DYLOAD=0 Vmin=0.8 Pmin=123.75 Pmax=495 Qmin=42.3 Qmax=169.2 name=DL23      
  17,  "1",  1,  1,  1,  308.6,  -92.2,  0.0,  0.0,             0.0,              0.0,  1  /  FDNE DYLOAD  P=308.6 Q=-92.2 Vbus=345 type=1 DYLOAD=0 Vmin=0.8 Pmin=154.3 Pmax=617.2 Qmin=46.1 Qmax=184.4 name=DL24  
  18,  "1",  1,  1,  1,    224,   47.2,  0.0,  0.0,             0.0,              0.0,  1 /  FDNE DYLOAD P=224 Q=47.2 Vbus=345 type=1 DYLOAD=0 Vmin=0.8 Pmin=112 Pmax=448 Qmin=23.6 Qmax=94.4 name=DL25            
  19,  "1",  1,  1,  1,    139,     17,  0.0,  0.0,             0.0,              0.0,  1 /  FDNE DYLOAD P=139 Q=17 Vbus=345 type=1 DYLOAD=0 Vmin=0.8 Pmin=69.5 Pmax=278 Qmin=8.5 Qmax=34 name=DL26                
  20,  "1",  1,  1,  1,    281,   75.5,  0.0,  0.0,             0.0,              0.0,  1 /  FDNE DYLOAD P=281 Q=75.5 Vbus=345 type=1 DYLOAD=0 Vmin=0.8 Pmin=140.5 Pmax=562 Qmin=37.75 Qmax=151 name=DL27          
  21,  "1",  1,  1,  1,    206,   27.6,  0.0,  0.0,             0.0,              0.0,  1 /  FDNE DYLOAD P=206 Q=27.6 Vbus=345 type=1 DYLOAD=0 Vmin=0.8 Pmin=103 Pmax=412 Qmin=13.8 Qmax=55.2 name=DL28            
  22,  "1",  1,  1,  1,  283.5,   26.9,  0.0,  0.0,             0.0,              0.0,  1 /  FDNE DYLOAD P=283.5 Q=26.9 Vbus=345 type=1 DYLOAD=0 Vmin=0.8 Pmin=141.75 Pmax=567 Qmin=13.45 Qmax=53.8 name=DL29      
  23,  "1",  1,  1,  1,    322,    2.4,  0.0,  0.0,             0.0,              0.0,  1 /  FDNE DYLOAD P=322 Q=2.4 Vbus=345 type=1 DYLOAD=0 Vmin=0.8 Pmin=161 Pmax=644 Qmin=1.2 Qmax=4.8 name=DL3                
  24,  "1",  1,  1,  1,    0.0,    0.0,  0.0,  0.0,               0,                0,                                                                                                                           1 
  25,  "1",  1,  1,  1,    0.0,    0.0,  0.0,  0.0,  9.540329052538,  -4.770205980294,                                                                                                                           1 
  26,  "1",  1,  1,  1,    0.0,    0.0,  0.0,  0.0,               0,                0,                                                                                                                           1 
  27,  "1",  1,  1,  1,    0.0,    0.0,  0.0,  0.0,               0,                0,                                                                                                                           1 
  28,  "1",  1,  1,  1,    0.0,    0.0,  0.0,  0.0,               0,                0,                                                                                                                           1 
  29,  "1",  1,  1,  1,    0.0,    0.0,  0.0,  0.0,               0,                0,                                                                                                                           1 
  30,  "1",  1,  1,  1,    0.0,    0.0,  0.0,  0.0,               0,                0,                                                                                                                           1 
  31,  "1",  1,  1,  1,    0.0,    0.0,  0.0,  0.0,               0,                0,                                                                                                                           1 
  32,  "1",  1,  1,  1,    0.0,    0.0,  0.0,  0.0,               0,                0,                                                                                                                           1 
  33,  "1",  1,  1,  1,    0.0,    0.0,  0.0,  0.0,               0,                0,                                                                                                                           1 
  33,  "2",  1,  1,  1,   1104,    250,  0.0,  0.0,             0.0,              0.0,  1 /  FDNE DYLOAD P=1104 Q=250 Vbus=345 type=1 DYLOAD=0 Vmin=0.8 Pmin=552 Pmax=2208 Qmin=125 Qmax=500 name=DL39             
  34,  "1",  1,  1,  1,    500,    184,  0.0,  0.0,             0.0,              0.0,  1 /  FDNE DYLOAD P=500 Q=184 Vbus=345 type=1 DYLOAD=0 Vmin=0.8 Pmin=250 Pmax=1000 Qmin=92 Qmax=368 name=DL4                
  37,  "1",  1,  1,  1,  233.8,     84,  0.0,  0.0,             0.0,              0.0,  1 /  FDNE DYLOAD P=233.8 Q=84 Vbus=345 type=1 DYLOAD=0 Vmin=0.8 Pmin=116.9 Pmax=467.6 Qmin=42 Qmax=168 name=DL7            
  38,  "1",  1,  1,  1,    522,    176,  0.0,  0.0,             0.0,              0.0,  1 /  FDNE DYLOAD P=522 Q=176 Vbus=345 type=1 DYLOAD=0 Vmin=0.8 Pmin=261 Pmax=1044 Qmin=88 Qmax=352 name=DL8                
0 /end load section starting source section
  24,  1,      250,   146.16,  99999.9,  -99999.9,  1.0475,  0,  100.0,  0,  1,  0,  0,  1,  1,  100,  9999,  -9999,  0,  1 
  25,  1,  520.696,  198.226,  99999.9,  -99999.9,   0.982,  0,  100.0,  0,  1,  0,  0,  1,  1,  100,  9999,  -9999,  0,  1 
  26,  1,      650,  205.133,  99999.9,  -99999.9,  0.9831,  0,  100.0,  0,  1,  0,  0,  1,  1,  100,  9999,  -9999,  0,  1 
  27,  1,      632,  109.905,  99999.9,  -99999.9,  0.9972,  0,  100.0,  0,  1,  0,  0,  1,  1,  100,  9999,  -9999,  0,  1 
  28,  1,      508,  165.763,  99999.9,  -99999.9,  1.0123,  0,  100.0,  0,  1,  0,  0,  1,  1,  100,  9999,  -9999,  0,  1 
  29,  1,      650,   212.41,  99999.9,  -99999.9,  1.0493,  0,  100.0,  0,  1,  0,  0,  1,  1,  100,  9999,  -9999,  0,  1 
  30,  1,      560,  101.174,  99999.9,  -99999.9,  1.0635,  0,  100.0,  0,  1,  0,  0,  1,  1,  100,  9999,  -9999,  0,  1 
  31,  1,      540,    0.434,  99999.9,  -99999.9,  1.0278,  0,  100.0,  0,  1,  0,  0,  1,  1,  100,  9999,  -9999,  0,  1 
  32,  1,      830,   22.839,  99999.9,  -99999.9,  1.0265,  0,  100.0,  0,  1,  0,  0,  1,  1,  100,  9999,  -9999,  0,  1 
  33,  1,     1000,   88.278,  99999.9,   -9999.9,    1.03,  0,  100.0,  0,  1,  0,  0,  1,  1,  100,  9999,  -9999,  0,  1 
0 /end source section starting branch section
   1,  12,  1,    0.0034665692,  0.040905025472,  0.700377345808,  0,  0,   0,               0,   0,  0,  0,  0,  0,  1,  1,  0,  1 
   1,  33,  1,  0.000993758772,  0.024922086763,  0.751174493821,  0,  0,   0,               0,   0,  0,  0,  0,  0,  1,  1,  0,  1 
   2,  26,  1,               0,            0.02,               0,  0,  0,   0,            1.07,  30,  0,  0,  0,  0,  1,  0,  0,  1 
   3,   2,  1,  0.000399958205,  0.004299759595,  0.072901604405,  0,  0,   0,               0,   0,  0,  0,  0,  0,  1,  1,  0,  1 
   3,   4,  1,          0.0016,          0.0435,               0,  0,  0,   0,  0.994035785288,   0,  0,  0,  0,  0,  1,  0,  0,  1 
   3,  36,  1,  0.000699734263,  0.008198417106,  0.138912545575,  0,  0,   0,               0,   0,  0,  0,  0,  0,  1,  1,  0,  1 
   4,   5,  1,          0.0016,          0.0435,               0,  0,  0,   0,           1.006,   0,  0,  0,  0,  0,  1,  0,  0,  1 
   5,   2,  1,  0.000399958205,  0.004299759595,  0.072901604405,  0,  0,   0,               0,   0,  0,  0,  0,  0,  1,  1,  0,  1 
   6,   5,  1,  0.000899478002,  0.010097067221,  0.172324531432,  0,  0,   0,               0,   0,  0,  0,  0,  0,  1,  1,  0,  1 
   6,  34,  1,  0.000799524655,   0.01289619015,  0.138220621642,  0,  0,   0,               0,   0,  0,  0,  0,  0,  1,  1,  0,  1 
   7,   6,  1,  0.001795237493,  0.021671526289,  0.366243136901,  0,  0,   0,               0,   0,  0,  0,  0,  0,  1,  1,  0,  1 
   7,   8,  1,  0.000899517841,  0.009397471948,  0.171022306198,  0,  0,   0,               0,   0,  0,  0,  0,  0,  1,  1,  0,  1 
   8,   9,  1,  0.000699721335,  0.008898266179,  0.134213763053,  0,  0,   0,               0,   0,  0,  0,  0,  0,  1,  1,  0,  1 
   8,  11,  1,   0.00159683979,  0.019480905922,   0.30415083789,  0,  0,   0,               0,   0,  0,  0,  0,  0,  1,  1,  0,  1 
   9,  10,  1,  0.000699747655,  0.008198486364,   0.13191114382,  0,  0,   0,               0,   0,  0,  0,  0,  0,  1,  1,  0,  1 
  10,  23,  1,  0.001098957584,  0.013293781683,  0.213851334406,  0,  0,   0,               0,   0,  0,  0,  0,  0,  1,  1,  0,  1 
  11,  13,  1,          0.0007,          0.0138,               0,  0,  0,   0,            1.06,   0,  0,  0,  0,  0,  1,  0,  0,  1 
  11,  27,  1,          0.0007,          0.0142,               0,  0,  0,   0,            1.07,  30,  0,  0,  0,  0,  1,  0,  0,  1 
  12,  18,  1,  0.006997070468,  0.008599411992,   0.14601560752,  0,  0,   0,               0,   0,  0,  0,  0,  0,  1,  1,  0,  1 
  12,  24,  1,               0,          0.0181,               0,  0,  0,   0,           1.025,  30,  0,  0,  0,  0,  1,  0,  0,  1 
  13,  28,  1,          0.0009,           0.018,               0,  0,  0,   0,           1.009,  30,  0,  0,  0,  0,  1,  0,  0,  1 
  14,   8,  1,  0.000799082962,  0.013492250317,  0.254872333002,  0,  0,   0,               0,   0,  0,  0,  0,  0,  1,  1,  0,  1 
  15,  14,  1,  0.000799042656,  0.013991661077,  0.256576990486,  0,  0,   0,               0,   0,  0,  0,  0,  0,  1,  1,  0,  1 
  15,  16,  1,  0.000599645614,  0.009597189565,   0.18462752995,  0,  0,   0,               0,   0,  0,  0,  0,  0,  1,  1,  0,  1 
  15,  29,  1,               0,          0.0143,               0,  0,  0,   0,           1.025,  30,  0,  0,  0,  0,  1,  0,  0,  1 
  16,  17,  1,  0.002190743092,  0.034926646206,  0.361380719306,  0,  0,   0,               0,   0,  0,  0,  0,  0,  1,  1,  0,  1 
  16,  30,  1,          0.0005,          0.0272,               0,  0,  0,   0,               1,  30,  0,  0,  0,  0,  1,  0,  0,  1 
  17,   8,  1,  0.000299959881,  0.005899588211,  0.068002062719,  0,  0,   0,               0,   0,  0,  0,  0,  0,  1,  1,  0,  1 
  18,  19,  1,  0.003182347357,  0.032211714241,  0.513709017742,  0,  0,   0,               0,   0,  0,  0,  0,  0,  1,  1,  0,  1 
  18,  31,  1,          0.0006,          0.0232,               0,  0,  0,   0,           1.025,  30,  0,  0,  0,  0,  1,  0,  0,  1 
  19,  21,  1,  0.004247139594,  0.047110805343,  0.782613744345,  0,  0,   0,               0,   0,  0,  0,  0,  0,  1,  1,  0,  1 
  20,   9,  1,  0.001297590084,  0.017284024331,  0.321748654597,  0,  0,   0,               0,   0,  0,  0,  0,  0,  1,  1,  0,  1 
  20,  19,  1,  0.001398356777,  0.014691450355,  0.239670346335,  0,  0,   0,               0,   0,  0,  0,  0,  0,  1,  1,  0,  1 
  22,  19,  1,  0.005578392989,  0.061837704637,  1.034549452701,  0,  0,   0,               0,   0,  0,  0,  0,  0,  1,  1,  0,  1 
  22,  21,  1,  0.001398245876,  0.015090610801,  0.249077883697,  0,  0,   0,               0,   0,  0,  0,  0,  0,  1,  1,  0,  1 
  22,  32,  1,          0.0008,          0.0156,               0,  0,  0,   0,           1.025,  30,  0,  0,  0,  0,  1,  0,  0,  1 
  23,  12,  1,  0.001298317536,  0.015090336375,  0.257283890552,  0,  0,   0,               0,   0,  0,  0,  0,  0,  1,  1,  0,  1 
  34,  23,  1,  0.001297957193,  0.021283362481,  0.221487438244,  0,  0,   0,               0,   0,  0,  0,  0,  0,  1,  1,  0,  1 
  34,  35,  1,  0.000799541986,  0.012796399097,  0.134219728176,  0,  0,   0,               0,   0,  0,  0,  0,  0,  1,  1,  0,  1 
  35,  36,  1,  0.000199992478,  0.002599917496,  0.043399842387,  0,  0,   0,               0,   0,  0,  0,  0,  0,  1,  1,  0,  1 
  35,  38,  1,  0.000799559224,  0.011196906577,  0.147620025517,  0,  0,   0,               0,   0,  0,  0,  0,  0,  1,  1,  0,  1 
  36,  25,  1,               0,           0.025,               0,  0,  0,   0,            1.07,  30,  0,  0,  0,  0,  1,  0,  0,  1 
  36,  37,  1,  0.000599792095,   0.00919843881,  0.113010110398,  0,  0,   0,               0,   0,  0,  0,  0,  0,  1,  1,  0,  1 
  37,  38,  1,  0.000399952162,  0.004599703271,  0.078001929621,  0,  0,   0,               0,   0,  0,  0,  0,  0,  1,  1,  0,  1 
  38,  39,  1,  0.002289424416,  0.036216845317,  0.380838275007,  0,  0,   0,               0,   0,  0,  0,  0,  0,  1,  1,  0,  1 
  39,  33,  1,  0.000990022455,  0.024875400367,  1.203009701995,  0,  0,   0,               0,   0,  0,  0,  0,  0,  1,  1,  0,  1 
0
0
0
0
0
0
0
0
0
0
